
Note: No compatibility mode selected!


Circuit: * qflow part d tg mux load sweep

Doing analysis at TEMP = 27.000000 and TNOM = 27.000000

Using SPARSE 1.3 as Direct Linear Solver

Initial Transient Solution
--------------------------

Node                                   Voltage
----                                   -------
vdd                                        1.8
sel                                        1.8
selb                                         0
in0                                          0
in1                                          0
out                                3.35185e-09
vin1#branch                           5.43e-12
vin0#branch                           1.81e-12
vselb#branch                                 0
vsel#branch                                  0
vdd_supply#branch                    -7.24e-12


No. of Data Rows : 20044

  Measurements for Transient Analysis

tplh                =  2.701999e-11 targ=  2.052020e-09 trig=  2.025000e-09
tphl                =  2.625032e-11 targ=  5.101250e-09 trig=  5.075000e-09

ngspice-42 done
